
  1019              3D

 18 16  0  0  0  0  0  0  0  0999 V2000
    2.7024   -2.3202   -0.1056 C   0  0  0  0  0  0  0  0  0  0  0  0
    4.2211   -2.3442   -0.1697 C   0  0  0  0  0  0  0  0  0  0  0  0
    4.8718   -2.7441    1.1561 C   0  0  0  0  0  0  0  0  0  0  0  0
    4.7627   -1.6883    2.2495 C   0  0  0  0  0  0  0  0  0  0  0  0
    5.7969   -0.6461    2.0495 N   0  3  0  0  0  0  0  0  0  0  0  0
   -1.7339   -2.2963    0.0335 Br  0  5  0  0  0  0  0  0  0  0  0  0
    2.3446   -1.4036    0.3726 H   0  0  0  0  0  0  0  0  0  0  0  0
    2.2871   -2.3525   -1.1178 H   0  0  0  0  0  0  0  0  0  0  0  0
    2.3064   -3.1783    0.4461 H   0  0  0  0  0  0  0  0  0  0  0  0
    4.5242   -3.0666   -0.9373 H   0  0  0  0  0  0  0  0  0  0  0  0
    4.5899   -1.3675   -0.5021 H   0  0  0  0  0  0  0  0  0  0  0  0
    4.4145   -3.6734    1.5168 H   0  0  0  0  0  0  0  0  0  0  0  0
    5.9268   -2.9843    0.9707 H   0  0  0  0  0  0  0  0  0  0  0  0
    3.7948   -1.1804    2.2686 H   0  0  0  0  0  0  0  0  0  0  0  0
    4.9546   -2.1261    3.2338 H   0  0  0  0  0  0  0  0  0  0  0  0
    5.6981    0.1104    2.7389 H   0  0  0  0  0  0  0  0  0  0  0  0
    6.7447   -1.0325    2.1541 H   0  0  0  0  0  0  0  0  0  0  0  0
    5.7355   -0.2182    1.1168 H   0  0  0  0  0  0  0  0  0  0  0  0
  1  2  1  0  0  0  0
  2  3  1  0  0  0  0
  3  4  1  0  0  0  0
  4  5  1  0  0  0  0
  1  7  1  0  0  0  0
  1  8  1  0  0  0  0
  1  9  1  0  0  0  0
  2 10  1  0  0  0  0
  2 11  1  0  0  0  0
  3 12  1  0  0  0  0
  3 13  1  0  0  0  0
  4 14  1  0  0  0  0
  4 15  1  0  0  0  0
  5 16  1  0  0  0  0
  5 17  1  0  0  0  0
  5 18  1  0  0  0  0
M  CHG  2   5   1   6  -1
M  END

> <energy>
-0.17630744918988439

> <StdInChI>
InChI=1S/C4H11N.BrH/c1-2-3-4-5;/h2-5H2,1H3;1H

> <StdInChIKey>
SXGBREZGMJVYRL-UHFFFAOYSA-N

> <AuxInfo>
1/1/N:1,2,3,4,5;6/rA:18nCCCCN+Br-HHHHHHHHHHHH/rB:s1;s2;s3;s4;;s1;s1;s1;s2;s2;s3;s3;s4;s4;s5;s5;s5;/rC:2.7024,-2.3202,-.1056;4.2211,-2.3442,-.1697;4.8718,-2.7441,1.1561;4.7627,-1.6883,2.2495;5.7969,-.6461,2.0495;-1.7339,-2.2963,.0335;2.3446,-1.4036,.3726;2.2871,-2.3525,-1.1178;2.3064,-3.1783,.4461;4.5242,-3.0666,-.9373;4.5899,-1.3675,-.5021;4.4145,-3.6734,1.5168;5.9268,-2.9843,.9707;3.7948,-1.1804,2.2686;4.9546,-2.1261,3.2338;5.6981,.1104,2.7389;6.7447,-1.0325,2.1541;5.7355,-.2182,1.1168;

> <Formula>
C4 H12 Br N

> <Mw>
154.0488

> <SMILES>
C([H])([H])([H])C([H])([H])C([H])([H])C([H])([H])[N+]([H])([H])[H].[Br-]

> <CSID>
10654811

$$$$
