
  1019              3D

 58 59  0  0  0  0  0  0  0  0999 V2000
    0.7178   -0.9162    0.4026 C   0  0  0  0  0  0  0  0  0  0  0  0
   -0.4415   -1.6907    0.4879 C   0  0  0  0  0  0  0  0  0  0  0  0
   -0.3821   -3.0878    0.3502 C   0  0  0  0  0  0  0  0  0  0  0  0
    0.8384   -3.7330    0.1270 C   0  0  0  0  0  0  0  0  0  0  0  0
    1.9817   -2.9518    0.0322 C   0  0  0  0  0  0  0  0  0  0  0  0
    1.9231   -1.5644    0.1837 C   0  0  0  0  0  0  0  0  0  0  0  0
    3.2688   -3.3468   -0.1527 N   0  3  0  0  0  0  0  0  0  0  0  0
    4.0804   -2.3354   -0.0923 C   0  0  0  0  0  0  0  0  0  0  0  0
    3.3156   -1.0124    0.0940 C   0  0  0  0  0  0  0  0  0  0  0  0
    3.6425   -4.7568   -0.3748 C   0  0  0  0  0  0  0  0  0  0  0  0
    3.4742   -0.0953   -1.1233 C   0  0  0  0  0  0  0  0  0  0  0  0
    3.7331   -0.3027    1.3826 C   0  0  0  0  0  0  0  0  0  0  0  0
    5.5496   -2.4293   -0.1008 C   0  0  0  0  0  0  0  0  0  0  0  0
    6.2252   -2.1587   -1.2239 C   0  0  0  0  0  0  0  0  0  0  0  0
    7.6913   -2.2590   -1.2654 C   0  0  0  0  0  0  0  0  0  0  0  0
    8.2604   -3.3935   -1.8643 C   0  0  0  0  0  0  0  0  0  0  0  0
    9.6486   -3.5531   -1.9203 C   0  0  0  0  0  0  0  0  0  0  0  0
   10.5035   -2.5894   -1.3716 C   0  0  0  0  0  0  0  0  0  0  0  0
    9.9296   -1.4567   -0.7694 C   0  0  0  0  0  0  0  0  0  0  0  0
    8.5360   -1.2694   -0.7218 C   0  0  0  0  0  0  0  0  0  0  0  0
   11.8839   -2.7779   -1.4220 N   0  0  0  0  0  0  0  0  0  0  0  0
   12.6039   -2.1533   -2.5317 C   0  0  0  0  0  0  0  0  0  0  0  0
   12.5690   -3.0895   -0.1662 C   0  0  0  0  0  0  0  0  0  0  0  0
   13.5440   -4.2461   -0.3663 C   0  0  0  0  0  0  0  0  0  0  0  0
   13.9461   -5.0001    1.1969 Cl  0  0  0  0  0  0  0  0  0  0  0  0
   12.7901   -0.6548   -2.3471 C   0  0  0  0  0  0  0  0  0  0  0  0
    7.9874   -0.0326   -0.0639 C   0  0  0  0  0  0  0  0  0  0  0  0
    8.0019   -7.4611    0.7734 Cl  0  5  0  0  0  0  0  0  0  0  0  0
    0.6668    0.1613    0.5154 H   0  0  0  0  0  0  0  0  0  0  0  0
   -1.3981   -1.2121    0.6737 H   0  0  0  0  0  0  0  0  0  0  0  0
   -1.2942   -3.6728    0.4309 H   0  0  0  0  0  0  0  0  0  0  0  0
    0.8489   -4.8137    0.0524 H   0  0  0  0  0  0  0  0  0  0  0  0
    2.7749   -5.3767   -0.5978 H   0  0  0  0  0  0  0  0  0  0  0  0
    4.3166   -4.7967   -1.2324 H   0  0  0  0  0  0  0  0  0  0  0  0
    4.1497   -5.1217    0.5229 H   0  0  0  0  0  0  0  0  0  0  0  0
    6.0422   -2.7186    0.8231 H   0  0  0  0  0  0  0  0  0  0  0  0
    2.8039    0.7717   -1.0634 H   0  0  0  0  0  0  0  0  0  0  0  0
    4.4921    0.3009   -1.1904 H   0  0  0  0  0  0  0  0  0  0  0  0
    3.2604   -0.6200   -2.0620 H   0  0  0  0  0  0  0  0  0  0  0  0
    3.6776   -0.9692    2.2505 H   0  0  0  0  0  0  0  0  0  0  0  0
    4.7628    0.0634    1.3178 H   0  0  0  0  0  0  0  0  0  0  0  0
    3.0948    0.5665    1.5811 H   0  0  0  0  0  0  0  0  0  0  0  0
    5.7234   -1.8691   -2.1404 H   0  0  0  0  0  0  0  0  0  0  0  0
    7.6255   -4.1719   -2.2836 H   0  0  0  0  0  0  0  0  0  0  0  0
   10.0577   -4.4471   -2.3842 H   0  0  0  0  0  0  0  0  0  0  0  0
   10.5829   -0.7054   -0.3227 H   0  0  0  0  0  0  0  0  0  0  0  0
    7.5156   -0.2980    0.8865 H   0  0  0  0  0  0  0  0  0  0  0  0
    8.7770    0.6990    0.1470 H   0  0  0  0  0  0  0  0  0  0  0  0
    7.2445    0.4575   -0.7013 H   0  0  0  0  0  0  0  0  0  0  0  0
   13.5870   -2.6250   -2.6416 H   0  0  0  0  0  0  0  0  0  0  0  0
   12.0745   -2.3431   -3.4745 H   0  0  0  0  0  0  0  0  0  0  0  0
   13.1115   -2.2068    0.1911 H   0  0  0  0  0  0  0  0  0  0  0  0
   11.8399   -3.3476    0.6125 H   0  0  0  0  0  0  0  0  0  0  0  0
   13.0632   -0.3909   -1.3199 H   0  0  0  0  0  0  0  0  0  0  0  0
   13.5883   -0.2938   -3.0025 H   0  0  0  0  0  0  0  0  0  0  0  0
   11.8773   -0.1140   -2.6175 H   0  0  0  0  0  0  0  0  0  0  0  0
   13.1253   -5.0293   -1.0066 H   0  0  0  0  0  0  0  0  0  0  0  0
   14.4856   -3.8987   -0.8026 H   0  0  0  0  0  0  0  0  0  0  0  0
  1  2  2  0  0  0  0
  1  6  1  0  0  0  0
  2  3  1  0  0  0  0
  3  4  2  0  0  0  0
  4  5  1  0  0  0  0
  5  6  2  0  0  0  0
  5  7  1  0  0  0  0
  6  9  1  0  0  0  0
  7  8  2  0  0  0  0
  7 10  1  0  0  0  0
  8  9  1  0  0  0  0
  8 13  1  0  0  0  0
  9 11  1  0  0  0  0
  9 12  1  0  0  0  0
 13 14  2  0  0  0  0
 14 15  1  0  0  0  0
 15 16  1  0  0  0  0
 15 20  2  0  0  0  0
 16 17  2  0  0  0  0
 17 18  1  0  0  0  0
 18 19  2  0  0  0  0
 18 21  1  0  0  0  0
 19 20  1  0  0  0  0
 20 27  1  0  0  0  0
 21 22  1  0  0  0  0
 21 23  1  0  0  0  0
 22 26  1  0  0  0  0
 23 24  1  0  0  0  0
 24 25  1  0  0  0  0
  1 29  1  0  0  0  0
  2 30  1  0  0  0  0
  3 31  1  0  0  0  0
  4 32  1  0  0  0  0
 10 33  1  0  0  0  0
 10 34  1  0  0  0  0
 10 35  1  0  0  0  0
 13 36  1  0  0  0  0
 11 37  1  0  0  0  0
 11 38  1  0  0  0  0
 11 39  1  0  0  0  0
 12 40  1  0  0  0  0
 12 41  1  0  0  0  0
 12 42  1  0  0  0  0
 14 43  1  0  0  0  0
 16 44  1  0  0  0  0
 17 45  1  0  0  0  0
 19 46  1  0  0  0  0
 27 47  1  0  0  0  0
 27 48  1  0  0  0  0
 27 49  1  0  0  0  0
 22 50  1  0  0  0  0
 22 51  1  0  0  0  0
 23 52  1  0  0  0  0
 23 53  1  0  0  0  0
 26 54  1  0  0  0  0
 26 55  1  0  0  0  0
 26 56  1  0  0  0  0
 24 57  1  0  0  0  0
 24 58  1  0  0  0  0
M  CHG  2   7   1  28  -1
M  END

> <energy>
110.91063136288312

> <StdInChI>
InChI=1S/C24H30ClN2.ClH/c1-6-27(16-15-25)20-13-11-19(18(2)17-20)12-14-23-24(3,4)21-9-7-8-10-22(21)26(23)5;/h7-14,17H,6,15-16H2,1-5H3;1H/q+1;/p-1

> <StdInChIKey>
JQZWHMOVSQRYRN-UHFFFAOYSA-M

> <AuxInfo>
1/1/N:26,27,11,12,10,22,2,3,1,4,16,14,17,13,24,23,19,20,15,18,6,5,8,9,25,7,21;28/E:(3,4);/CRV:26+1;/rA:58nCCCCCCN+CCCCCCCCCCCCCNCCCClCCCl-HHHHHHHHHHHHHHHHHHHHHHHHHHHHHH/rB:d1;s2;d3;s4;s1d5;s5;d7;s6s8;s7;s9;s9;s8;d13;s14;s15;d16;s17;d18;d15s19;s18;s21;s21;s23;s24;s22;s20;;s1;s2;s3;s4;s10;s10;s10;s13;s11;s11;s11;s12;s12;s12;s14;s16;s17;s19;s27;s27;s27;s22;s22;s23;s23;s26;s26;s26;s24;s24;/rC:.7178,-.9162,.4026;-.4415,-1.6907,.4879;-.3821,-3.0878,.3502;.8384,-3.733,.127;1.9817,-2.9518,.0322;1.9231,-1.5644,.1837;3.2688,-3.3468,-.1527;4.0804,-2.3354,-.0923;3.3156,-1.0124,.094;3.6425,-4.7568,-.3748;3.4742,-.0953,-1.1233;3.7331,-.3027,1.3826;5.5496,-2.4293,-.1008;6.2252,-2.1587,-1.2239;7.6913,-2.259,-1.2654;8.2604,-3.3935,-1.8643;9.6486,-3.5531,-1.9203;10.5035,-2.5894,-1.3716;9.9296,-1.4567,-.7694;8.536,-1.2694,-.7218;11.8839,-2.7779,-1.422;12.6039,-2.1533,-2.5317;12.569,-3.0895,-.1662;13.544,-4.2461,-.3663;13.9461,-5.0001,1.1969;12.7901,-.6548,-2.3471;7.9874,-.0326,-.0639;8.0019,-7.4611,.7734;.6668,.1613,.5154;-1.3981,-1.2121,.6737;-1.2942,-3.6728,.4309;.8489,-4.8137,.0524;2.7749,-5.3767,-.5978;4.3166,-4.7967,-1.2324;4.1497,-5.1217,.5229;6.0422,-2.7186,.8231;2.8039,.7717,-1.0634;4.4921,.3009,-1.1904;3.2604,-.62,-2.062;3.6776,-.9692,2.2505;4.7628,.0634,1.3178;3.0948,.5665,1.5811;5.7234,-1.8691,-2.1404;7.6255,-4.1719,-2.2836;10.0577,-4.4471,-2.3842;10.5829,-.7054,-.3227;7.5156,-.298,.8865;8.777,.699,.147;7.2445,.4575,-.7013;13.587,-2.625,-2.6416;12.0745,-2.3431,-3.4745;13.1115,-2.2068,.1911;11.8399,-3.3476,.6125;13.0632,-.3909,-1.3199;13.5883,-.2938,-3.0025;11.8773,-.114,-2.6175;13.1253,-5.0293,-1.0066;14.4856,-3.8987,-.8026;

> <Formula>
C24 H30 Cl2 N2

> <Mw>
417.4144

> <SMILES>
C1([H])C2C(C([H])([H])[H])(C([H])([H])[H])C(/C(/[H])=C(\[H])/C3=C(C([H])([H])[H])C([H])=C(N(C([H])([H])C([H])([H])Cl)C([H])([H])C([H])([H])[H])C([H])=C3[H])=[N+](C([H])([H])[H])C=2C([H])=C([H])C=1[H].[Cl-]

> <CSID>
85126

$$$$
