54832
  Marvin  12300706533D          

 41 42  0  0  0  0            999 V2000
    5.0482    1.7776    1.4735 O   0  0  0  0  0  0  0  0  0  0  0  0
    3.1605    1.0870    1.8200 O   0  0  0  0  0  0  0  0  0  0  0  0
   -2.1820   -3.1310   -0.1642 N   0  0  0  0  0  0  0  0  0  0  0  0
    0.1634    1.8359   -0.3130 N   0  0  0  0  0  0  0  0  0  0  0  0
    1.3066    2.0652    0.0590 N   0  0  0  0  0  0  0  0  0  0  0  0
   -2.7782   -3.4914    1.0757 C   0  0  0  0  0  0  0  0  0  0  0  0
   -1.8946   -4.1273   -1.1375 C   0  0  0  0  0  0  0  0  0  0  0  0
   -1.6281   -1.9159   -0.2730 C   0  0  0  0  0  0  0  0  0  0  0  0
   -0.2247   -1.8043   -0.1645 C   0  0  0  0  0  0  0  0  0  0  0  0
   -2.3894   -0.7410   -0.4730 C   0  0  0  0  0  0  0  0  0  0  0  0
   -3.6647   -2.4855    1.8555 C   0  0  0  0  0  0  0  0  0  0  0  0
   -1.6333   -3.7267   -2.6154 C   0  0  0  0  0  0  0  0  0  0  0  0
    0.3970   -0.5512   -0.2102 C   0  0  0  0  0  0  0  0  0  0  0  0
   -1.7683    0.5219   -0.4920 C   0  0  0  0  0  0  0  0  0  0  0  0
   -0.3705    0.6291   -0.3405 C   0  0  0  0  0  0  0  0  0  0  0  0
    2.0188    3.1703    0.1383 C   0  0  0  0  0  0  0  0  0  0  0  0
    3.3007    3.1339    0.7622 C   0  0  0  0  0  0  0  0  0  0  0  0
    1.5214    4.3664   -0.4268 C   0  0  0  0  0  0  0  0  0  0  0  0
    4.0493    4.3387    0.7778 C   0  0  0  0  0  0  0  0  0  0  0  0
    2.2887    5.5392   -0.3959 C   0  0  0  0  0  0  0  0  0  0  0  0
    3.5557    5.5255    0.2070 C   0  0  0  0  0  0  0  0  0  0  0  0
    3.8448    1.9888    1.3567 C   0  0  0  0  0  0  0  0  0  0  0  0
   -3.3967   -4.3876    0.9744 H   0  0  0  0  0  0  0  0  0  0  0  0
   -1.9611   -3.7699    1.7481 H   0  0  0  0  0  0  0  0  0  0  0  0
   -2.6904   -4.8756   -1.1821 H   0  0  0  0  0  0  0  0  0  0  0  0
   -1.0034   -4.6594   -0.7911 H   0  0  0  0  0  0  0  0  0  0  0  0
    0.3627   -2.6337   -0.0461 H   0  0  0  0  0  0  0  0  0  0  0  0
   -3.4049   -0.7930   -0.5881 H   0  0  0  0  0  0  0  0  0  0  0  0
   -4.0036   -2.9266    2.7955 H   0  0  0  0  0  0  0  0  0  0  0  0
   -4.5450   -2.2121    1.2707 H   0  0  0  0  0  0  0  0  0  0  0  0
   -3.1141   -1.5780    2.1129 H   0  0  0  0  0  0  0  0  0  0  0  0
   -1.2206   -4.5756   -3.1668 H   0  0  0  0  0  0  0  0  0  0  0  0
   -2.5619   -3.4203   -3.1009 H   0  0  0  0  0  0  0  0  0  0  0  0
   -0.9129   -2.9114   -2.7090 H   0  0  0  0  0  0  0  0  0  0  0  0
    1.4169   -0.5184   -0.1434 H   0  0  0  0  0  0  0  0  0  0  0  0
   -2.3491    1.3588   -0.6018 H   0  0  0  0  0  0  0  0  0  0  0  0
    0.6025    4.3977   -0.8769 H   0  0  0  0  0  0  0  0  0  0  0  0
    4.9733    4.3845    1.2159 H   0  0  0  0  0  0  0  0  0  0  0  0
    1.9249    6.3981   -0.8149 H   0  0  0  0  0  0  0  0  0  0  0  0
    4.1153    6.3803    0.2305 H   0  0  0  0  0  0  0  0  0  0  0  0
    5.6465    2.3372    1.1528 H   0  0  0  0  0  0  0  0  0  0  0  0
  1 22  1  0  0  0  0
  1 41  1  0  0  0  0
  2 22  2  0  0  0  0
  3  6  1  0  0  0  0
  3  7  1  0  0  0  0
  3  8  1  0  0  0  0
  4  5  2  0  0  0  0
  4 15  1  0  0  0  0
  5 16  1  0  0  0  0
  6 11  1  0  0  0  0
  6 23  1  0  0  0  0
  6 24  1  0  0  0  0
  7 12  1  0  0  0  0
  7 25  1  0  0  0  0
  7 26  1  0  0  0  0
  8  9  2  0  0  0  0
  8 10  1  0  0  0  0
  9 13  1  0  0  0  0
  9 27  1  0  0  0  0
 10 14  2  0  0  0  0
 10 28  1  0  0  0  0
 11 29  1  0  0  0  0
 11 30  1  0  0  0  0
 11 31  1  0  0  0  0
 12 32  1  0  0  0  0
 12 33  1  0  0  0  0
 12 34  1  0  0  0  0
 13 15  2  0  0  0  0
 13 35  1  0  0  0  0
 14 15  1  0  0  0  0
 14 36  1  0  0  0  0
 16 17  1  0  0  0  0
 16 18  2  0  0  0  0
 17 19  2  0  0  0  0
 17 22  1  0  0  0  0
 18 20  1  0  0  0  0
 18 37  1  0  0  0  0
 19 21  1  0  0  0  0
 19 38  1  0  0  0  0
 20 21  2  0  0  0  0
 20 39  1  0  0  0  0
 21 40  1  0  0  0  0
M  END

> <PUBCHEM_BONDANNOTATIONS>
10  14  8
13  15  8
14  15  8
16  17  8
16  18  8
17  19  8
18  20  8
19  21  8
20  21  8
8  10  8
8  9  8
9  13  8

> <StdInChI>
InChI=1S/C17H19N3O2/c1-3-20(4-2)14-11-9-13(10-12-14)18-19-16-8-6-5-7-15(16)17(21)22/h5-12H,3-4H2,1-2H3,(H,21,22)/b19-18+

> <StdInChIKey>
HBRCDTRQDHMTDA-VHEBQXMUSA-N

> <AuxInfo>
1/1/N:11,12,6,7,21,20,19,18,13,14,9,10,15,8,17,16,22,4,5,3,1,2/E:(1,2)(3,4)(9,10)(11,12)(21,22)/rA:41nOONNNCCCCCCCCCCCCCCCCCHHHHHHHHHHHHHHHHHHH/rB:;;;d4;s3;s3;s3;d8;s8;s6;s7;s9;d10;s4d13s14;s5;s16;d16;d17;s18;s19d20;s1d2s17;s6;s6;s7;s7;s9;s10;s11;s11;s11;s12;s12;s12;s13;s14;s18;s19;s20;s21;s1;/rC:5.0482,1.7776,1.4735;3.1605,1.087,1.82;-2.182,-3.131,-.1642;.1634,1.8359,-.313;1.3066,2.0652,.059;-2.7782,-3.4914,1.0757;-1.8946,-4.1273,-1.1375;-1.6281,-1.9159,-.273;-.2247,-1.8043,-.1645;-2.3894,-.741,-.473;-3.6647,-2.4855,1.8555;-1.6333,-3.7267,-2.6154;.397,-.5512,-.2102;-1.7683,.5219,-.492;-.3705,.6291,-.3405;2.0188,3.1703,.1383;3.3007,3.1339,.7622;1.5214,4.3664,-.4268;4.0493,4.3387,.7778;2.2887,5.5392,-.3959;3.5557,5.5255,.207;3.8448,1.9888,1.3567;-3.3967,-4.3876,.9744;-1.9611,-3.7699,1.7481;-2.6904,-4.8756,-1.1821;-1.0034,-4.6594,-.7911;.3627,-2.6337,-.0461;-3.4049,-.793,-.5881;-4.0036,-2.9266,2.7955;-4.545,-2.2121,1.2707;-3.1141,-1.578,2.1129;-1.2206,-4.5756,-3.1668;-2.5619,-3.4203,-3.1009;-.9129,-2.9114,-2.709;1.4169,-.5184,-.1434;-2.3491,1.3588,-.6018;.6025,4.3977,-.8769;4.9733,4.3845,1.2159;1.9249,6.3981,-.8149;4.1153,6.3803,.2305;5.6465,2.3372,1.1528;

> <Formula>
C17 H19 N3 O2

> <Mw>
297.3517

> <SMILES>
O([H])C(C1=C([H])C([H])=C([H])C([H])=C1/N=N/C1C([H])=C([H])C(=C([H])C=1[H])N(C([H])([H])C([H])([H])[H])C([H])([H])C([H])([H])[H])=O

> <CSID>
49507

$$$$
